*SPEF "ieee 1481-1999"
*DESIGN "wrapped_snn_network"
*DATE "11:11:11 Fri 11 11, 1111"
*VENDOR "OpenRCX"
*PROGRAM "Parallel Extraction"
*VERSION "1.0"
*DESIGN_FLOW "NAME_SCOPE LOCAL" "PIN_CAP NONE"
*DIVIDER /
*DELIMITER :
*BUS_DELIMITER []
*T_UNIT 1 NS
*C_UNIT 1 PF
*R_UNIT 1 OHM
*L_UNIT 1 HENRY

*NAME_MAP
*1 active
*2 io_in[0]
*3 io_in[10]
*4 io_in[11]
*5 io_in[12]
*6 io_in[13]
*7 io_in[14]
*8 io_in[15]
*9 io_in[16]
*10 io_in[17]
*11 io_in[18]
*12 io_in[19]
*13 io_in[1]
*14 io_in[20]
*15 io_in[21]
*16 io_in[22]
*17 io_in[23]
*18 io_in[24]
*19 io_in[25]
*20 io_in[26]
*21 io_in[27]
*22 io_in[28]
*23 io_in[29]
*24 io_in[2]
*25 io_in[30]
*26 io_in[31]
*27 io_in[32]
*28 io_in[33]
*29 io_in[34]
*30 io_in[35]
*31 io_in[36]
*32 io_in[37]
*33 io_in[3]
*34 io_in[4]
*35 io_in[5]
*36 io_in[6]
*37 io_in[7]
*38 io_in[8]
*39 io_in[9]
*40 io_oeb[0]
*41 io_oeb[10]
*42 io_oeb[11]
*43 io_oeb[12]
*44 io_oeb[13]
*45 io_oeb[14]
*46 io_oeb[15]
*47 io_oeb[16]
*48 io_oeb[17]
*49 io_oeb[18]
*50 io_oeb[19]
*51 io_oeb[1]
*52 io_oeb[20]
*53 io_oeb[21]
*54 io_oeb[22]
*55 io_oeb[23]
*56 io_oeb[24]
*57 io_oeb[25]
*58 io_oeb[26]
*59 io_oeb[27]
*60 io_oeb[28]
*61 io_oeb[29]
*62 io_oeb[2]
*63 io_oeb[30]
*64 io_oeb[31]
*65 io_oeb[32]
*66 io_oeb[33]
*67 io_oeb[34]
*68 io_oeb[35]
*69 io_oeb[36]
*70 io_oeb[37]
*71 io_oeb[3]
*72 io_oeb[4]
*73 io_oeb[5]
*74 io_oeb[6]
*75 io_oeb[7]
*76 io_oeb[8]
*77 io_oeb[9]
*78 io_out[0]
*79 io_out[10]
*80 io_out[11]
*81 io_out[12]
*82 io_out[13]
*83 io_out[14]
*84 io_out[15]
*85 io_out[16]
*86 io_out[17]
*87 io_out[18]
*88 io_out[19]
*89 io_out[1]
*90 io_out[20]
*91 io_out[21]
*92 io_out[22]
*93 io_out[23]
*94 io_out[24]
*95 io_out[25]
*96 io_out[26]
*97 io_out[27]
*98 io_out[28]
*99 io_out[29]
*100 io_out[2]
*101 io_out[30]
*102 io_out[31]
*103 io_out[32]
*104 io_out[33]
*105 io_out[34]
*106 io_out[35]
*107 io_out[36]
*108 io_out[37]
*109 io_out[3]
*110 io_out[4]
*111 io_out[5]
*112 io_out[6]
*113 io_out[7]
*114 io_out[8]
*115 io_out[9]
*118 wb_clk_i
*119 _0002_
*120 _0004_
*121 _0005_
*122 _0006_
*123 _0007_
*124 _0008_
*125 _0009_
*126 _0010_
*127 _0011_
*128 _0012_
*129 _0013_
*130 _0014_
*131 _0015_
*132 _0016_
*133 _0017_
*134 _0018_
*135 _0019_
*136 _0022_
*137 _0024_
*138 _0025_
*139 _0028_
*140 _0030_
*141 _0031_
*142 _0034_
*143 _0036_
*144 _0037_
*145 _0040_
*146 _0042_
*147 _0043_
*148 _0046_
*149 _0048_
*150 _0049_
*151 _0052_
*152 _0054_
*153 _0055_
*154 _0058_
*155 _0060_
*156 _0061_
*157 _0064_
*158 _0066_
*159 _0067_
*160 _0070_
*161 _0072_
*162 _0073_
*163 _0076_
*164 _0078_
*165 _0079_
*166 _0082_
*167 _0084_
*168 _0085_
*169 _0086_
*170 _0087_
*171 _0088_
*172 _0090_
*173 _0091_
*174 _0092_
*175 _0093_
*176 _0094_
*177 _0095_
*178 _0096_
*179 _0097_
*180 _0098_
*181 _0101_
*182 _0103_
*183 _0104_
*184 _0105_
*185 _0106_
*186 _0107_
*187 _0110_
*188 _0112_
*189 _0113_
*190 _0116_
*191 _0118_
*192 _0119_
*193 _0122_
*194 _0124_
*195 _0125_
*196 _0128_
*197 _0130_
*198 _0131_
*199 _0134_
*200 _0136_
*201 _0137_
*202 _0140_
*203 _0142_
*204 _0143_
*205 _0146_
*206 _0148_
*207 _0149_
*208 _0152_
*209 _0154_
*210 _0155_
*211 _0158_
*212 _0160_
*213 _0161_
*214 _0164_
*215 _0166_
*216 _0167_
*217 _0170_
*218 _0172_
*219 _0173_
*220 _0176_
*221 _0178_
*222 _0179_
*223 _0182_
*224 _0184_
*225 _0185_
*226 _0188_
*227 _0190_
*228 _0191_
*229 _0194_
*230 _0196_
*231 _0197_
*232 _0200_
*233 _0202_
*234 _0203_
*235 _0206_
*236 _0208_
*237 _0209_
*238 _0212_
*239 _0214_
*240 _0215_
*241 _0218_
*242 _0220_
*243 _0221_
*244 _0224_
*245 _0226_
*246 _0227_
*247 _0230_
*248 _0232_
*249 _0233_
*250 _0236_
*251 _0238_
*252 _0239_
*253 _0242_
*254 _0244_
*255 _0245_
*256 _0248_
*257 _0250_
*258 _0251_
*259 _0254_
*260 _0256_
*261 _0257_
*262 _0260_
*263 _0262_
*264 _0263_
*265 _0266_
*266 _0268_
*267 _0269_
*268 _0272_
*269 _0274_
*270 _0275_
*271 _0278_
*272 _0280_
*273 _0281_
*274 _0284_
*275 _0286_
*276 _0287_
*277 _0290_
*278 _0292_
*279 _0293_
*280 _0296_
*281 _0298_
*282 _0299_
*283 _0302_
*284 _0304_
*285 _0305_
*286 _0308_
*287 _0310_
*288 _0311_
*289 _0314_
*290 _0316_
*291 _0317_
*292 _0320_
*293 _0322_
*294 _0323_
*295 _0326_
*296 _0328_
*297 _0329_
*298 _0332_
*299 _0334_
*300 _0335_
*301 _0338_
*302 _0340_
*303 _0341_
*304 _0344_
*305 _0346_
*306 _0347_
*307 _0350_
*308 _0352_
*309 _0353_
*310 _0356_
*311 _0358_
*312 _0359_
*313 _0362_
*314 _0364_
*315 _0365_
*316 _0368_
*317 _0370_
*318 _0371_
*319 _0374_
*320 _0376_
*321 _0377_
*322 _0380_
*323 _0382_
*324 _0383_
*325 _0386_
*326 _0388_
*327 _0389_
*328 _0392_
*329 _0394_
*330 _0395_
*331 _0398_
*332 _0400_
*333 _0401_
*334 _0404_
*335 _0406_
*336 _0407_
*337 _0410_
*338 _0412_
*339 _0413_
*340 _0416_
*341 _0418_
*342 _0419_
*343 _0422_
*344 _0424_
*345 _0425_
*346 _0428_
*347 _0430_
*348 _0431_
*349 _0434_
*350 _0436_
*351 _0437_
*352 _0440_
*353 _0442_
*354 _0443_
*355 _0446_
*356 _0448_
*357 _0449_
*358 _0452_
*359 _0454_
*360 _0455_
*361 _0458_
*362 _0460_
*363 _0461_
*364 _0464_
*365 _0466_
*366 _0467_
*367 _0468_
*368 _0469_
*369 _0472_
*370 _0474_
*371 _0475_
*372 _0476_
*373 _0477_
*374 _0480_
*375 _0482_
*376 _0483_
*377 _0484_
*378 _0485_
*379 _0488_
*380 _0490_
*381 _0491_
*382 _0492_
*383 _0493_
*384 _0496_
*385 _0498_
*386 _0499_
*387 _0500_
*388 _0501_
*389 _0504_
*390 _0506_
*391 _0507_
*392 _0508_
*393 _0509_
*394 _0512_
*395 _0514_
*396 _0515_
*397 _0516_
*398 _0517_
*399 _0520_
*400 _0522_
*401 _0523_
*402 _0524_
*403 _0525_
*404 _0528_
*405 _0530_
*406 _0531_
*407 _0532_
*408 _0533_
*409 _0536_
*410 _0538_
*411 _0539_
*412 _0540_
*413 _0541_
*414 _0544_
*415 _0546_
*416 _0547_
*417 _0548_
*418 _0549_
*419 _0552_
*420 _0554_
*421 _0555_
*422 _0556_
*423 _0557_
*424 _0560_
*425 _0562_
*426 _0563_
*427 _0564_
*428 _0565_
*429 _0568_
*430 _0570_
*431 _0571_
*432 _0572_
*433 _0573_
*434 _0576_
*435 _0578_
*436 _0579_
*437 _0580_
*438 _0581_
*439 _0584_
*440 _0586_
*441 _0587_
*442 _0588_
*443 _0589_
*444 _0590_
*445 _0591_
*446 _0592_
*447 _0593_
*448 _0594_
*449 _0595_
*450 _0596_
*451 _0597_
*452 _0598_
*453 _0599_
*454 _0600_
*455 _0601_
*456 _0602_
*457 _0603_
*458 _0604_
*459 _0605_
*460 _0606_
*461 _0607_
*462 _0608_
*463 _0609_
*464 _0610_
*465 _0611_
*466 _0612_
*467 _0613_
*468 _0614_
*469 _0615_
*470 _0616_
*471 _0617_
*472 _0618_
*473 _0619_
*474 _0620_
*475 _0621_
*476 _0622_
*477 _0623_
*478 _0624_
*479 _0625_
*480 _0626_
*481 _0627_
*482 _0628_
*483 _0629_
*484 _0630_
*485 _0631_
*486 _0632_
*487 _0633_
*488 _0634_
*489 _0635_
*490 _0636_
*491 _0637_
*492 _0638_
*493 _0639_
*494 _0640_
*495 _0641_
*496 _0642_
*497 _0643_
*498 _0644_
*499 _0645_
*500 _0646_
*501 _0647_
*502 _0648_
*503 _0649_
*504 _0650_
*505 _0651_
*506 _0652_
*507 _0653_
*508 _0654_
*509 _0655_
*510 _0656_
*511 _0657_
*512 _0658_
*513 _0659_
*514 _0660_
*515 _0661_
*516 _0662_
*517 _0663_
*518 _0664_
*519 _0665_
*520 _0666_
*521 _0667_
*522 _0668_
*523 _0669_
*524 _0670_
*525 _0671_
*526 _0672_
*527 _0673_
*528 _0674_
*529 _0675_
*530 _0676_
*531 _0677_
*532 _0678_
*533 _0679_
*534 _0680_
*535 _0681_
*536 _0682_
*537 _0683_
*538 _0684_
*539 _0685_
*540 _0686_
*541 _0687_
*542 _0688_
*543 _0689_
*544 _0690_
*545 _0691_
*546 _0692_
*547 _0693_
*548 _0694_
*549 _0695_
*550 _0696_
*551 _0697_
*552 _0698_
*553 _0699_
*554 _0700_
*555 _0701_
*556 _0702_
*557 _0703_
*558 _0704_
*559 _0705_
*560 _0706_
*561 _0707_
*562 _0708_
*563 _0709_
*564 _0710_
*565 _0711_
*566 _0712_
*567 _0713_
*568 _0714_
*569 _0715_
*570 _0716_
*571 _0717_
*572 _0718_
*573 _0719_
*574 _0720_
*575 _0721_
*576 _0722_
*577 _0723_
*578 _0724_
*579 _0725_
*580 _0726_
*581 _0727_
*582 _0728_
*583 _0729_
*584 _0730_
*585 _0731_
*586 _0732_
*587 _0733_
*588 _0734_
*589 _0735_
*590 _0736_
*591 _0737_
*592 _0738_
*593 _0739_
*594 _0740_
*595 _0741_
*596 _0742_
*597 _0743_
*598 _0744_
*599 _0745_
*600 _0746_
*601 _0747_
*602 _0748_
*603 _0749_
*604 _0750_
*605 _0751_
*606 _0752_
*607 _0753_
*608 _0754_
*609 _0755_
*610 _0756_
*611 _0757_
*612 _0758_
*613 _0759_
*614 _0760_
*615 _0761_
*616 _0762_
*617 _0763_
*618 _0764_
*619 _0765_
*620 _0766_
*621 _0767_
*622 _0768_
*623 _0769_
*624 _0770_
*625 _0771_
*626 _0772_
*627 _0773_
*628 _0774_
*629 _0775_
*630 _0776_
*631 _0777_
*632 _0778_
*633 _0779_
*634 _0780_
*635 _0781_
*636 _0782_
*637 _0783_
*638 _0784_
*639 _0785_
*640 _0786_
*641 _0787_
*642 _0788_
*643 _0789_
*644 _0790_
*645 _0791_
*646 _0792_
*647 _0793_
*648 _0794_
*649 _0795_
*650 _0796_
*651 _0797_
*652 _0798_
*653 _0799_
*654 _0800_
*655 _0801_
*656 _0802_
*657 _0803_
*658 _0804_
*659 _0805_
*660 _0806_
*661 _0807_
*662 _0808_
*663 _0809_
*664 _0810_
*665 _0811_
*666 _0812_
*667 _0813_
*668 _0814_
*669 _0815_
*670 _0816_
*671 _0817_
*672 _0818_
*673 _0819_
*674 _0820_
*675 _0821_
*676 _0822_
*677 _0823_
*678 _0824_
*679 _0825_
*680 _0826_
*681 _0827_
*682 _0828_
*683 _0829_
*684 _0830_
*685 _0831_
*686 _0832_
*687 _0833_
*688 _0834_
*689 _0835_
*690 _0836_
*691 _0837_
*692 _0838_
*693 _0839_
*694 _0840_
*695 _0841_
*696 _0842_
*697 _0843_
*698 _0844_
*699 _0845_
*700 _0846_
*701 _0847_
*702 _0848_
*703 _0849_
*704 _0850_
*705 _0851_
*706 _0852_
*707 _0853_
*708 _0854_
*709 _0855_
*710 _0856_
*711 _0857_
*712 _0858_
*713 _0859_
*714 _0860_
*715 _0861_
*716 _0862_
*717 _0863_
*718 _0864_
*719 _0865_
*720 _0866_
*721 _0867_
*722 _0868_
*723 _0869_
*724 _0870_
*725 _0871_
*726 _0872_
*727 _0873_
*728 _0874_
*729 _0875_
*730 _0876_
*731 _0877_
*732 _0878_
*733 _0879_
*734 _0880_
*735 _0881_
*736 _0882_
*737 _0883_
*738 _0884_
*739 _0885_
*740 _0886_
*741 _0887_
*742 _0888_
*743 _0889_
*744 _0890_
*745 _0891_
*746 _0892_
*747 _0893_
*748 _0894_
*749 _0895_
*750 _0896_
*751 _0897_
*752 _0898_
*753 _0899_
*754 _0900_
*755 _0901_
*756 _0902_
*757 _0903_
*758 _0904_
*759 _0905_
*760 _0906_
*761 _0907_
*762 _0908_
*763 _0909_
*764 _0910_
*765 _0911_
*766 _0912_
*767 _0913_
*768 _0914_
*769 _0915_
*770 _0916_
*771 _0917_
*772 _0918_
*773 _0919_
*774 _0920_
*775 _0921_
*776 _0922_
*777 _0923_
*778 _0924_
*779 _0925_
*780 _0926_
*781 _0927_
*782 _0928_
*783 _0929_
*784 _0930_
*785 _0931_
*786 _0932_
*787 _0933_
*788 _0934_
*789 _0935_
*790 _0936_
*791 _0937_
*792 _0938_
*793 _0939_
*794 _0940_
*795 _0941_
*796 _0942_
*797 _0943_
*798 _0944_
*799 _0945_
*800 _0946_
*801 _0947_
*802 _0948_
*803 _0949_
*804 _0950_
*805 _0951_
*806 _0952_
*807 _0953_
*808 _0954_
*809 _0955_
*810 _0956_
*811 _0957_
*812 _0958_
*813 _0959_
*814 _0960_
*815 _0961_
*816 _0962_
*817 _0963_
*818 _0964_
*819 _0965_
*820 _0966_
*821 _0967_
*822 _0968_
*823 _0969_
*824 _0970_
*825 _0971_
*826 _0972_
*827 _0973_
*828 _0974_
*829 _0975_
*830 _0976_
*831 _0977_
*832 _0978_
*833 _0979_
*834 _0980_
*835 _0981_
*836 _0982_
*837 _0983_
*838 _0984_
*839 _0985_
*840 _0986_
*841 _0987_
*842 _0988_
*843 _0989_
*844 _0990_
*845 _0991_
*846 _0992_
*847 _0993_
*848 _0994_
*849 _0995_
*850 _0996_
*851 _0997_
*852 _0998_
*853 _0999_
*854 _1000_
*855 _1001_
*856 _1002_
*857 _1003_
*858 _1004_
*859 _1005_
*860 _1006_
*861 _1007_
*862 _1008_
*863 _1009_
*864 _1010_
*865 _1011_
*866 _1012_
*867 _1013_
*868 _1014_
*869 _1015_
*870 _1016_
*871 _1017_
*872 _1018_
*873 _1019_
*874 _1020_
*875 _1021_
*876 _1022_
*877 _1023_
*878 _1024_
*879 _1025_
*880 _1026_
*881 _1027_
*882 _1028_
*883 _1029_
*884 _1030_
*885 _1031_
*886 _1032_
*887 _1033_
*888 _1034_
*889 _1035_
*890 _1036_
*891 _1037_
*892 _1038_
*893 _1039_
*894 _1040_
*895 _1041_
*896 _1042_
*897 _1043_
*898 _1044_
*899 _1045_
*900 _1046_
*901 _1047_
*902 _1048_
*903 _1049_
*904 _1050_
*905 _1051_
*906 _1052_
*907 _1053_
*908 _1054_
*909 _1055_
*910 _1056_
*911 _1057_
*912 _1058_
*913 _1059_
*914 _1060_
*915 _1061_
*916 _1062_
*917 _1063_
*918 _1064_
*919 _1065_
*920 _1066_
*921 _1067_
*922 _1068_
*923 _1069_
*924 _1070_
*925 _1071_
*926 _1072_
*927 _1073_
*928 _1074_
*929 _1075_
*930 _1076_
*931 _1077_
*932 _1078_
*933 _1079_
*934 _1080_
*935 _1081_
*936 _1082_
*937 _1083_
*938 _1084_
*939 _1085_
*940 _1086_
*941 _1087_
*942 _1088_
*943 _1089_
*944 _1090_
*945 _1091_
*946 _1092_
*947 _1093_
*948 _1094_
*949 _1095_
*950 _1096_
*951 _1097_
*952 _1098_
*953 _1099_
*954 _1100_
*955 _1101_
*956 _1102_
*957 _1103_
*958 _1104_
*959 _1105_
*960 _1106_
*961 _1107_
*962 _1108_
*963 _1109_
*964 _1110_
*965 _1111_
*966 _1112_
*967 _1113_
*968 _1114_
*969 _1115_
*970 _1116_
*971 _1117_
*972 _1118_
*973 _1119_
*974 _1120_
*975 _1121_
*976 _1122_
*977 _1123_
*978 _1124_
*979 _1125_
*980 _1126_
*981 _1127_
*982 _1128_
*983 _1129_
*984 _1130_
*985 _1131_
*986 _1132_
*987 _1133_
*988 _1134_
*989 _1135_
*990 _1136_
*991 _1137_
*992 _1138_
*993 _1139_
*994 _1140_
*995 _1141_
*996 _1142_
*997 _1143_
*998 _1144_
*999 _1145_
*1000 _1146_
*1001 _1147_
*1002 _1148_
*1003 _1149_
*1004 _1150_
*1005 _1151_
*1006 _1152_
*1007 _1153_
*1008 _1154_
*1009 _1155_
*1010 _1156_
*1011 _1157_
*1012 _1158_
*1013 _1159_
*1014 _1160_
*1015 _1161_
*1016 _1162_
*1017 _1163_
*1018 _1164_
*1019 _1165_
*1020 _1166_
*1021 _1167_
*1022 _1168_
*1023 _1169_
*1024 _1170_
*1025 _1171_
*1026 _1172_
*1027 _1173_
*1028 _1174_
*1029 _1175_
*1030 _1176_
*1031 _1177_
*1032 _1178_
*1033 _1179_
*1034 _1180_
*1035 _1181_
*1036 _1182_
*1037 _1183_
*1038 _1184_
*1039 _1185_
*1040 _1186_
*1041 _1187_
*1042 _1188_
*1043 _1189_
*1044 _1190_
*1045 _1191_
*1046 _1192_
*1047 _1193_
*1048 _1194_
*1049 _1195_
*1050 _1196_
*1051 _1197_
*1052 _1198_
*1053 _1199_
*1054 _1200_
*1055 _1201_
*1056 _1202_
*1057 _1203_
*1058 _1204_
*1059 _1205_
*1060 _1206_
*1061 _1207_
*1062 _1208_
*1063 _1209_
*1064 _1210_
*1065 _1211_
*1066 _1212_
*1067 _1213_
*1068 _1214_
*1069 _1215_
*1070 _1216_
*1071 _1217_
*1072 _1218_
*1073 _1219_
*1074 _1220_
*1075 _1221_
*1076 _1222_
*1077 _1223_
*1078 _1224_
*1079 _1225_
*1080 _1226_
*1081 _1227_
*1082 _1228_
*1083 _1229_
*1084 _1230_
*1085 _1231_
*1086 _1232_
*1087 _1233_
*1088 _1234_
*1089 _1235_
*1090 _1236_
*1091 _1237_
*1092 _1238_
*1093 _1239_
*1094 _1240_
*1095 _1241_
*1096 _1242_
*1097 _1243_
*1098 _1244_
*1099 _1245_
*1100 _1246_
*1101 _1247_
*1102 _1248_
*1103 _1249_
*1104 _1250_
*1105 _1251_
*1106 _1252_
*1107 _1253_
*1108 _1254_
*1109 _1255_
*1110 _1256_
*1111 _1257_
*1112 _1258_
*1113 _1259_
*1114 _1260_
*1115 _1261_
*1116 _1262_
*1117 _1263_
*1118 _1264_
*1119 _1265_
*1120 _1266_
*1121 _1267_
*1122 _1268_
*1123 _1269_
*1124 _1270_
*1125 _1271_
*1126 _1272_
*1127 _1273_
*1128 _1274_
*1129 _1275_
*1130 _1276_
*1131 _1277_
*1132 _1278_
*1133 _1279_
*1134 _1280_
*1135 _1281_
*1136 _1282_
*1137 _1283_
*1138 _1284_
*1139 _1285_
*1140 _1286_
*1141 _1287_
*1142 _1288_
*1143 _1289_
*1144 _1290_
*1145 _1291_
*1146 _1292_
*1147 _1293_
*1148 _1294_
*1149 _1295_
*1150 _1296_
*1151 _1297_
*1152 _1298_
*1153 _1299_
*1154 _1300_
*1155 _1301_
*1156 _1302_
*1157 _1303_
*1158 _1304_
*1159 _1305_
*1160 _1306_
*1161 _1307_
*1162 _1308_
*1163 _1309_
*1164 _1310_
*1165 _1311_
*1166 _1312_
*1167 _1313_
*1168 _1314_
*1169 _1315_
*1170 _1316_
*1171 _1317_
*1172 _1318_
*1173 _1319_
*1174 _1320_
*1175 _1321_
*1176 _1322_
*1177 _1323_
*1178 _1324_
*1179 _1325_
*1180 _1326_
*1181 _1327_
*1182 _1328_
*1183 _1329_
*1184 _1330_
*1185 _1331_
*1186 _1332_
*1187 _1333_
*1188 _1334_
*1189 _1335_
*1190 _1336_
*1191 _1337_
*1192 _1338_
*1193 _1339_
*1194 _1340_
*1195 _1341_
*1196 _1342_
*1197 _1343_
*1198 _1344_
*1199 _1345_
*1200 _1346_
*1201 _1347_
*1202 _1348_
*1203 _1349_
*1204 _1350_
*1205 _1351_
*1206 _1352_
*1207 _1353_
*1208 _1354_
*1209 _1355_
*1210 _1356_
*1211 _1357_
*1212 _1358_
*1213 _1359_
*1214 _1360_
*1215 _1361_
*1216 _1362_
*1217 _1363_
*1218 _1364_
*1219 _1365_
*1220 _1366_
*1221 _1367_
*1222 _1368_
*1223 _1369_
*1224 _1370_
*1225 _1371_
*1226 _1372_
*1227 _1373_
*1228 _1374_
*1229 _1375_
*1230 _1376_
*1231 _1377_
*1232 _1378_
*1233 _1379_
*1234 _1380_
*1235 _1381_
*1236 _1382_
*1237 _1383_
*1238 _1384_
*1239 _1385_
*1240 _1386_
*1241 _1387_
*1242 _1388_
*1243 _1389_
*1244 _1390_
*1245 _1391_
*1246 _1392_
*1247 _1393_
*1248 _1394_
*1249 _1395_
*1250 _1396_
*1251 _1397_
*1252 _1398_
*1253 _1399_
*1254 _1400_
*1255 _1401_
*1256 _1402_
*1257 _1403_
*1258 _1404_
*1259 _1405_
*1260 _1406_
*1261 _1407_
*1262 _1408_
*1263 _1409_
*1264 _1410_
*1265 _1411_
*1266 _1412_
*1267 _1413_
*1268 _1414_
*1269 _1415_
*1270 _1416_
*1271 _1417_
*1272 _1418_
*1273 _1419_
*1274 _1420_
*1275 _1421_
*1276 _1422_
*1277 _1423_
*1278 _1424_
*1279 _1425_
*1280 _1426_
*1281 _1427_
*1282 _1428_
*1283 _1429_
*1284 _1430_
*1285 _1431_
*1286 _1432_
*1287 _1433_
*1288 _1434_
*1289 _1435_
*1290 _1436_
*1291 _1437_
*1292 _1438_
*1293 _1439_
*1294 _1440_
*1295 _1441_
*1296 _1442_
*1297 _1443_
*1298 _1444_
*1299 _1445_
*1300 _1446_
*1301 _1447_
*1302 _1448_
*1303 _1449_
*1304 _1450_
*1305 _1451_
*1306 _1452_
*1307 _1453_
*1308 _1454_
*1309 _1455_
*1310 _1456_
*1311 _1457_
*1312 _1458_
*1313 _1459_
*1314 _1460_
*1315 _1461_
*1316 _1462_
*1317 _1463_
*1318 _1464_
*1319 _1465_
*1320 _1466_
*1321 _1467_
*1322 _1468_
*1323 _1469_
*1324 _1470_
*1325 _1471_
*1326 _1472_
*1327 _1473_
*1328 _1474_
*1329 _1475_
*1330 _1476_
*1331 _1477_
*1332 _1478_
*1333 _1479_
*1334 _1480_
*1335 _1481_
*1336 _1482_
*1337 _1483_
*1338 _1484_
*1339 _1485_
*1340 _1486_
*1341 _1487_
*1342 _1488_
*1343 _1489_
*1344 _1490_
*1345 _1491_
*1346 _1492_
*1347 _1493_
*1348 _1494_
*1349 _1495_
*1350 _1496_
*1351 _1497_
*1352 _1498_
*1353 _1499_
*1354 _1500_
*1355 _1501_
*1356 _1502_
*1357 _1503_
*1358 _1504_
*1359 _1505_
*1360 _1506_
*1361 _1507_
*1362 _1508_
*1363 _1509_
*1364 _1510_
*1365 _1511_
*1366 _1512_
*1367 _1513_
*1368 _1514_
*1369 _1515_
*1370 _1516_
*1371 _1517_
*1372 _1518_
*1373 _1519_
*1374 _1520_
*1375 _1521_
*1376 _1522_
*1377 _1523_
*1378 _1524_
*1379 _1525_
*1380 _1526_
*1381 _1527_
*1382 _1528_
*1383 _1529_
*1384 _1530_
*1385 _1531_
*1386 _1532_
*1387 _1533_
*1388 _1534_
*1389 _1535_
*1390 _1536_
*1391 _1537_
*1392 _1538_
*1393 _1539_
*1394 _1540_
*1395 _1541_
*1396 _1542_
*1397 _1543_
*1398 _1544_
*1399 _1545_
*1400 _1546_
*1401 _1547_
*1402 _1548_
*1403 _1549_
*1404 _1550_
*1405 _1551_
*1406 _1552_
*1407 _1553_
*1408 _1554_
*1409 _1555_
*1410 _1556_
*1411 _1557_
*1412 _1558_
*1413 _1559_
*1414 _1560_
*1415 _1561_
*1416 _1562_
*1417 _1563_
*1418 _1564_
*1419 _1565_
*1420 _1566_
*1421 _1567_
*1422 _1568_
*1423 _1569_
*1424 _1570_
*1425 _1571_
*1426 _1572_
*1427 _1573_
*1428 _1574_
*1429 _1575_
*1430 _1576_
*1431 _1577_
*1432 _1578_
*1433 _1579_
*1434 _1580_
*1435 _1581_
*1436 _1582_
*1437 _1583_
*1438 _1584_
*1439 _1585_
*1440 _1586_
*1441 _1587_
*1442 _1588_
*1443 _1589_
*1444 _1590_
*1445 _1591_
*1446 _1592_
*1447 _1593_
*1448 _1594_
*1449 _1595_
*1450 _1596_
*1451 _1597_
*1452 _1598_
*1453 _1599_
*1454 _1600_
*1455 _1601_
*1456 _1602_
*1457 _1603_
*1458 _1604_
*1459 _1605_
*1460 _1606_
*1461 _1607_
*1462 _1608_
*1463 _1609_
*1464 _1610_
*1465 _1611_
*1466 _1612_
*1467 _1613_
*1468 _1614_
*1469 _1615_
*1470 _1616_
*1471 _1617_
*1472 _1618_
*1473 _1619_
*1474 _1620_
*1475 _1621_
*1476 _1622_
*1477 _1623_
*1478 _1624_
*1479 _1625_
*1480 _1626_
*1481 _1627_
*1482 _1628_
*1483 _1629_
*1484 _1630_
*1485 _1631_
*1486 _1632_
*1487 _1633_
*1488 _1634_
*1489 _1635_
*1490 _1636_
*1491 _1637_
*1492 _1638_
*1493 _1639_
*1494 _1640_
*1495 _1641_
*1496 _1642_
*1497 _1643_
*1498 _1644_
*1499 _1645_
*1500 _1646_
*1501 _1647_
*1502 _1648_
*1503 _1649_
*1504 _1650_
*1505 _1651_
*1506 _1652_
*1507 _1653_
*1508 _1654_
*1509 _1655_
*1510 _1656_
*1511 _1657_
*1512 _1658_
*1513 _1659_
*1514 _1660_
*1515 _1661_
*1516 _1662_
*1517 _1663_
*1518 _1664_
*1519 _1665_
*1520 _1666_
*1521 _1667_
*1522 _1668_
*1523 _1669_
*1524 _1670_
*1525 _1671_
*1526 _1672_
*1527 _1673_
*1528 _1674_
*1529 _1675_
*1530 _1676_
*1531 _1677_
*1532 _1678_
*1533 _1679_
*1534 _1680_
*1535 _1681_
*1536 _1682_
*1537 _1683_
*1538 _1684_
*1539 _1685_
*1540 _1686_
*1541 _1687_
*1542 _1688_
*1543 _1689_
*1544 _1690_
*1545 _1691_
*1546 _1692_
*1547 _1693_
*1548 _1694_
*1549 _1695_
*1550 _1696_
*1551 _1697_
*1552 _1698_
*1553 _1699_
*1554 _1700_
*1555 _1701_
*1556 _1702_
*1557 _1703_
*1558 _1704_
*1559 _1705_
*1560 _1706_
*1561 _1707_
*1562 _1708_
*1563 _1709_
*1564 _1710_
*1565 _1711_
*1566 _1712_
*1567 _1713_
*1568 _1714_
*1569 _1715_
*1570 _1716_
*1571 _1717_
*1572 _1718_
*1573 _1719_
*1574 _1720_
*1575 _1721_
*1576 _1722_
*1577 _1723_
*1578 _1724_
*1579 _1725_
*1580 _1726_
*1581 _1727_
*1582 _1728_
*1583 _1729_
*1584 _1730_
*1585 _1731_
*1586 _1732_
*1587 _1733_
*1588 _1734_
*1589 _1735_
*1590 _1736_
*1591 _1737_
*1592 _1738_
*1593 _1739_
*1594 _1740_
*1595 _1741_
*1596 _1742_
*1597 _1743_
*1598 _1744_
*1599 _1745_
*1600 _1746_
*1601 _1747_
*1602 _1748_
*1603 _1749_
*1604 _1750_
*1605 _1751_
*1606 _1752_
*1607 _1753_
*1608 _1754_
*1609 _1755_
*1610 _1756_
*1611 _1757_
*1612 _1758_
*1613 _1759_
*1614 _1760_
*1615 _1761_
*1616 _1762_
*1617 _1763_
*1618 _1764_
*1619 _1765_
*1620 _1766_
*1621 _1767_
*1622 _1768_
*1623 _1769_
*1624 _1770_
*1625 _1771_
*1626 _1772_
*1627 _1773_
*1628 _1774_
*1629 _1775_
*1630 _1776_
*1631 _1777_
*1632 _1778_
*1633 _1779_
*1634 _1780_
*1635 _1781_
*1636 _1782_
*1637 _1783_
*1638 _1784_
*1639 _1785_
*1640 _1786_
*1641 _1787_
*1642 _1788_
*1643 _1789_
*1644 _1790_
*1645 _1791_
*1646 _1792_
*1647 _1793_
*1648 _1794_
*1649 _1795_
*1650 _1796_
*1651 _1797_
*1652 _1798_
*1653 _1799_
*1654 _1800_
*1655 _1801_
*1656 _1802_
*1657 _1803_
*1658 _1804_
*1659 _1805_
*1660 _1806_
*1661 _1807_
*1662 _1808_
*1663 _1809_
*1664 _1810_
*1665 _1811_
*1666 _1812_
*1667 _1813_
*1668 _1814_
*1669 _1815_
*1670 _1816_
*1671 _1817_
*1672 _1818_
*1673 _1819_
*1674 _1820_
*1675 _1821_
*1676 _1822_
*1677 _1823_
*1678 _1824_
*1679 _1825_
*1680 _1826_
*1681 _1827_
*1682 _1828_
*1683 _1829_
*1684 _1830_
*1685 _1831_
*1686 _1832_
*1687 _1833_
*1688 _1834_
*1689 _1835_
*1690 _1836_
*1691 _1837_
*1692 _1838_
*1693 _1839_
*1694 _1840_
*1695 _1841_
*1696 _1842_
*1697 _1843_
*1698 _1844_
*1699 _1845_
*1700 _1846_
*1701 _1847_
*1702 _1848_
*1703 _1849_
*1704 _1850_
*1705 _1851_
*1706 _1852_
*1707 _1853_
*1708 _1854_
*1709 _1855_
*1710 _1856_
*1711 _1857_
*1712 _1858_
*1713 _1859_
*1714 _1860_
*1715 _1861_
*1716 _1862_
*1717 _1863_
*1718 _1864_
*1719 _1865_
*1720 _1866_
*1721 _1867_
*1722 _1868_
*1723 _1869_
*1724 _1870_
*1725 _1871_
*1726 _1872_
*1727 _1873_
*1728 _1874_
*1729 clknet_0_wb_clk_i
*1730 clknet_3_0__leaf_wb_clk_i
*1731 clknet_3_1__leaf_wb_clk_i
*1732 clknet_3_2__leaf_wb_clk_i
*1733 clknet_3_3__leaf_wb_clk_i
*1734 clknet_3_4__leaf_wb_clk_i
*1735 clknet_3_5__leaf_wb_clk_i
*1736 clknet_3_6__leaf_wb_clk_i
*1737 clknet_3_7__leaf_wb_clk_i
*1738 clknet_leaf_0_wb_clk_i
*1739 clknet_leaf_10_wb_clk_i
*1740 clknet_leaf_11_wb_clk_i
*1741 clknet_leaf_12_wb_clk_i
*1742 clknet_leaf_13_wb_clk_i
*1743 clknet_leaf_14_wb_clk_i
*1744 clknet_leaf_15_wb_clk_i
*1745 clknet_leaf_16_wb_clk_i
*1746 clknet_leaf_17_wb_clk_i
*1747 clknet_leaf_18_wb_clk_i
*1748 clknet_leaf_19_wb_clk_i
*1749 clknet_leaf_1_wb_clk_i
*1750 clknet_leaf_20_wb_clk_i
*1751 clknet_leaf_21_wb_clk_i
*1752 clknet_leaf_22_wb_clk_i
*1753 clknet_leaf_23_wb_clk_i
*1754 clknet_leaf_24_wb_clk_i
*1755 clknet_leaf_25_wb_clk_i
*1756 clknet_leaf_26_wb_clk_i
*1757 clknet_leaf_27_wb_clk_i
*1758 clknet_leaf_28_wb_clk_i
*1759 clknet_leaf_29_wb_clk_i
*1760 clknet_leaf_2_wb_clk_i
*1761 clknet_leaf_30_wb_clk_i
*1762 clknet_leaf_31_wb_clk_i
*1763 clknet_leaf_32_wb_clk_i
*1764 clknet_leaf_33_wb_clk_i
*1765 clknet_leaf_34_wb_clk_i
*1766 clknet_leaf_35_wb_clk_i
*1767 clknet_leaf_36_wb_clk_i
*1768 clknet_leaf_37_wb_clk_i
*1769 clknet_leaf_38_wb_clk_i
*1770 clknet_leaf_39_wb_clk_i
*1771 clknet_leaf_3_wb_clk_i
*1772 clknet_leaf_41_wb_clk_i
*1773 clknet_leaf_42_wb_clk_i
*1774 clknet_leaf_43_wb_clk_i
*1775 clknet_leaf_44_wb_clk_i
*1776 clknet_leaf_45_wb_clk_i
*1777 clknet_leaf_46_wb_clk_i
*1778 clknet_leaf_47_wb_clk_i
*1779 clknet_leaf_48_wb_clk_i
*1780 clknet_leaf_49_wb_clk_i
*1781 clknet_leaf_4_wb_clk_i
*1782 clknet_leaf_50_wb_clk_i
*1783 clknet_leaf_51_wb_clk_i
*1784 clknet_leaf_52_wb_clk_i
*1785 clknet_leaf_53_wb_clk_i
*1786 clknet_leaf_54_wb_clk_i
*1787 clknet_leaf_55_wb_clk_i
*1788 clknet_leaf_56_wb_clk_i
*1789 clknet_leaf_57_wb_clk_i
*1790 clknet_leaf_58_wb_clk_i
*1791 clknet_leaf_59_wb_clk_i
*1792 clknet_leaf_5_wb_clk_i
*1793 clknet_leaf_60_wb_clk_i
*1794 clknet_leaf_61_wb_clk_i
*1795 clknet_leaf_62_wb_clk_i
*1796 clknet_leaf_63_wb_clk_i
*1797 clknet_leaf_64_wb_clk_i
*1798 clknet_leaf_65_wb_clk_i
*1799 clknet_leaf_66_wb_clk_i
*1800 clknet_leaf_67_wb_clk_i
*1801 clknet_leaf_6_wb_clk_i
*1802 clknet_leaf_7_wb_clk_i
*1803 clknet_leaf_8_wb_clk_i
*1804 clknet_leaf_9_wb_clk_i
*1805 clknet_opt_1_0_wb_clk_i
*1806 net1
*1807 net10
*1808 net100
*1809 net101
*1810 net102
*1811 net103
*1812 net104
*1813 net105
*1814 net106
*1815 net107
*1816 net108
*1817 net109
*1818 net11
*1819 net110
*1820 net111
*1821 net112
*1822 net113
*1823 net114
*1824 net115
*1825 net116
*1826 net117
*1827 net118
*1828 net119
*1829 net12
*1830 net120
*1831 net121
*1832 net122
*1833 net123
*1834 net124
*1835 net125
*1836 net126
*1837 net127
*1838 net128
*1839 net129
*1840 net13
*1841 net130
*1842 net131
*1843 net132
*1844 net133
*1845 net134
*1846 net135
*1847 net136
*1848 net137
*1849 net138
*1850 net139
*1851 net14
*1852 net140
*1853 net141
*1854 net142
*1855 net143
*1856 net144
*1857 net145
*1858 net146
*1859 net147
*1860 net148
*1861 net149
*1862 net15
*1863 net150
*1864 net151
*1865 net152
*1866 net153
*1867 net154
*1868 net155
*1869 net156
*1870 net157
*1871 net158
*1872 net159
*1873 net16
*1874 net160
*1875 net161
*1876 net162
*1877 net163
*1878 net164
*1879 net165
*1880 net166
*1881 net167
*1882 net168
*1883 net169
*1884 net17
*1885 net170
*1886 net171
*1887 net172
*1888 net173
*1889 net174
*1890 net175
*1891 net176
*1892 net177
*1893 net178
*1894 net179
*1895 net18
*1896 net180
*1897 net181
*1898 net182
*1899 net183
*1900 net184
*1901 net185
*1902 net186
*1903 net187
*1904 net188
*1905 net189
*1906 net19
*1907 net190
*1908 net191
*1909 net192
*1910 net193
*1911 net194
*1912 net195
*1913 net196
*1914 net197
*1915 net198
*1916 net199
*1917 net2
*1918 net20
*1919 net200
*1920 net201
*1921 net202
*1922 net203
*1923 net204
*1924 net205
*1925 net206
*1926 net207
*1927 net208
*1928 net209
*1929 net21
*1930 net210
*1931 net211
*1932 net212
*1933 net213
*1934 net214
*1935 net215
*1936 net216
*1937 net217
*1938 net218
*1939 net219
*1940 net22
*1941 net220
*1942 net221
*1943 net222
*1944 net223
*1945 net224
*1946 net225
*1947 net226
*1948 net227
*1949 net228
*1950 net229
*1951 net23
*1952 net230
*1953 net231
*1954 net232
*1955 net233
*1956 net234
*1957 net235
*1958 net236
*1959 net237
*1960 net238
*1961 net239
*1962 net24
*1963 net240
*1964 net241
*1965 net242
*1966 net243
*1967 net244
*1968 net245
*1969 net246
*1970 net247
*1971 net248
*1972 net249
*1973 net25
*1974 net250
*1975 net251
*1976 net252
*1977 net253
*1978 net254
*1979 net255
*1980 net256
*1981 net257
*1982 net258
*1983 net259
*1984 net26
*1985 net260
*1986 net261
*1987 net262
*1988 net263
*1989 net264
*1990 net265
*1991 net266
*1992 net267
*1993 net268
*1994 net269
*1995 net27
*1996 net270
*1997 net271
*1998 net272
*1999 net273
*2000 net274
*2001 net275
*2002 net276
*2003 net277
*2004 net278
*2005 net279
*2006 net28
*2007 net280
*2008 net281
*2009 net282
*2010 net283
*2011 net284
*2012 net285
*2013 net286
*2014 net287
*2015 net288
*2016 net289
*2017 net29
*2018 net290
*2019 net291
*2020 net292
*2021 net293
*2022 net294
*2023 net295
*2024 net296
*2025 net297
*2026 net298
*2027 net299
*2028 net3
*2029 net30
*2030 net300
*2031 net301
*2032 net302
*2033 net303
*2034 net304
*2035 net305
*2036 net306
*2037 net307
*2038 net308
*2039 net309
*2040 net31
*2041 net310
*2042 net311
*2043 net312
*2044 net313
*2045 net314
*2046 net315
*2047 net316
*2048 net317
*2049 net318
*2050 net319
*2051 net32
*2052 net320
*2053 net321
*2054 net322
*2055 net323
*2056 net324
*2057 net325
*2058 net326
*2059 net327
*2060 net328
*2061 net329
*2062 net33
*2063 net330
*2064 net331
*2065 net332
*2066 net333
*2067 net334
*2068 net335
*2069 net336
*2070 net337
*2071 net338
*2072 net339
*2073 net34
*2074 net340
*2075 net341
*2076 net342
*2077 net343
*2078 net344
*2079 net345
*2080 net346
*2081 net347
*2082 net348
*2083 net349
*2084 net35
*2085 net350
*2086 net351
*2087 net352
*2088 net353
*2089 net354
*2090 net355
*2091 net356
*2092 net357
*2093 net36
*2094 net37
*2095 net38
*2096 net39
*2097 net4
*2098 net40
*2099 net41
*2100 net42
*2101 net43
*2102 net44
*2103 net45
*2104 net46
*2105 net47
*2106 net48
*2107 net49
*2108 net5
*2109 net50
*2110 net51
*2111 net52
*2112 net53
*2113 net54
*2114 net55
*2115 net56
*2116 net57
*2117 net58
*2118 net59
*2119 net6
*2120 net60
*2121 net61
*2122 net62
*2123 net63
*2124 net64
*2125 net65
*2126 net66
*2127 net67
*2128 net68
*2129 net69
*2130 net7
*2131 net70
*2132 net71
*2133 net72
*2134 net73
*2135 net74
*2136 net75
*2137 net76
*2138 net77
*2139 net78
*2140 net79
*2141 net8
*2142 net80
*2143 net81
*2144 net82
*2145 net83
*2146 net84
*2147 net85
*2148 net86
*2149 net87
*2150 net88
*2151 net89
*2152 net9
*2153 net90
*2154 net91
*2155 net92
*2156 net93
*2157 net94
*2158 net95
*2159 net96
*2160 net97
*2161 net98
*2162 net99
*2163 snn_network\.genblk1\[0\]\.in0\.cur\[0\]
*2164 snn_network\.genblk1\[0\]\.in0\.mem\[0\]
*2165 snn_network\.genblk1\[0\]\.in0\.spk
*2166 snn_network\.genblk1\[0\]\.in0\.thr\[0\]
*2167 snn_network\.genblk1\[0\]\.in0\.thr\[1\]
*2168 snn_network\.genblk1\[0\]\.in0\.thr\[4\]
*2169 snn_network\.genblk1\[0\]\.in0\.thr\[5\]
*2170 snn_network\.genblk1\[0\]\.in0\.thr\[6\]
*2171 snn_network\.genblk1\[10\]\.in0\.cur\[0\]
*2172 snn_network\.genblk1\[10\]\.in0\.mem\[0\]
*2173 snn_network\.genblk1\[10\]\.in0\.spk
*2174 snn_network\.genblk1\[10\]\.in0\.thr\[0\]
*2175 snn_network\.genblk1\[10\]\.in0\.thr\[1\]
*2176 snn_network\.genblk1\[10\]\.in0\.thr\[4\]
*2177 snn_network\.genblk1\[10\]\.in0\.thr\[5\]
*2178 snn_network\.genblk1\[10\]\.in0\.thr\[6\]
*2179 snn_network\.genblk1\[11\]\.in0\.cur\[0\]
*2180 snn_network\.genblk1\[11\]\.in0\.mem\[0\]
*2181 snn_network\.genblk1\[11\]\.in0\.spk
*2182 snn_network\.genblk1\[11\]\.in0\.thr\[0\]
*2183 snn_network\.genblk1\[11\]\.in0\.thr\[1\]
*2184 snn_network\.genblk1\[11\]\.in0\.thr\[4\]
*2185 snn_network\.genblk1\[11\]\.in0\.thr\[5\]